/*--------------------------------*- C++ -*----------------------------------*\
  =========                 |
  \\      /  F ield         | OpenFOAM: The Open Source CFD Toolbox
   \\    /   O peration     | Website:  https://openfoam.org
    \\  /    A nd           | Version:  9
     \\/     M anipulation  |
\*---------------------------------------------------------------------------*/
FoamFile
{
    format      ascii;
    class       dictionary;
    location    "system";
    object      setFieldsDict;
}
// * * * * * * * * * * * * * * * * * * * * * * * * * * * * * * * * * * * * * //

defaultFieldValues
(
    volScalarFieldValue alpha.water 1 //orig 0
);

regions
(

    // boxToCell
    // {
    //     box (0 0 -1) (1 5e-4 1); 
    //     fieldValues
    //     (
    //         volScalarFieldValue alpha.water 0
    //     );
    // }

    sphereToCell
    {
        centre (0 0.007 0); //(0 0.003 0)
        radius 0.001; //0.0005 
        fieldValues
        (
            volScalarFieldValue alpha.water 0
        );
    }
);


// ************************************************************************* //
