/*--------------------------------*- C++ -*----------------------------------*\
  =========                 |
  \\      /  F ield         | OpenFOAM: The Open Source CFD Toolbox
   \\    /   O peration     | Website:  https://openfoam.org
    \\  /    A nd           | Version:  9
     \\/     M anipulation  |
\*---------------------------------------------------------------------------*/
FoamFile
{
    format      ascii;
    class       dictionary;
    location    "constant";
    object      transportProperties;
}
// * * * * * * * * * * * * * * * * * * * * * * * * * * * * * * * * * * * * * //

phases (water air); //T = 20°C

water
{
    transportModel  Newtonian;
    nu              1.004e-06; // 1e-06
    rho             998.30;    // 1000
}

air
{
    transportModel  Newtonian;
    nu              1.51e-05;  // 1.48e-05
    rho             1.2041;    // 1
}

// Oberflächenspannung Wasser-Luft
sigma           0.0728; // 0.0707106


// ************************************************************************* //
